Version 4
SHEET 1 1252 928
WIRE -96 160 -160 160
WIRE 128 160 -96 160
WIRE 352 160 288 160
WIRE 544 160 352 160
WIRE 576 160 544 160
WIRE 608 160 576 160
WIRE 352 176 352 160
WIRE -160 208 -160 160
WIRE 544 224 544 160
WIRE 208 272 208 256
WIRE 352 272 352 256
WIRE 352 272 208 272
WIRE 208 336 208 272
WIRE 544 352 544 304
WIRE -160 448 -160 288
WIRE 592 448 416 448
WIRE 880 448 736 448
WIRE 1168 448 1008 448
WIRE 208 496 208 464
WIRE 256 496 256 400
WIRE 256 496 208 496
WIRE 352 496 256 496
WIRE 592 496 592 448
WIRE 592 496 480 496
WIRE 672 496 592 496
WIRE 880 496 880 448
WIRE 880 496 800 496
WIRE 944 496 880 496
WIRE 1168 496 1168 448
WIRE 1168 496 1072 496
WIRE 1232 496 1168 496
WIRE 1232 560 1232 496
WIRE 208 640 208 496
WIRE 400 640 208 640
WIRE 592 640 592 496
WIRE 592 640 480 640
WIRE 704 640 592 640
WIRE 880 640 880 496
WIRE 880 640 784 640
WIRE 992 640 880 640
WIRE 1168 640 1168 496
WIRE 1168 640 1072 640
WIRE 416 688 352 688
WIRE 560 688 464 688
WIRE 768 704 768 688
WIRE 848 704 768 704
WIRE 1008 704 1008 688
WIRE 1008 704 928 704
WIRE 1056 704 1056 688
WIRE 1104 704 1056 704
WIRE 720 720 720 688
WIRE 720 720 656 720
WIRE 352 784 352 688
WIRE 400 784 352 784
WIRE 560 784 560 688
WIRE 560 784 480 784
WIRE 656 800 656 720
WIRE 704 800 656 800
WIRE 848 800 848 704
WIRE 848 800 784 800
WIRE 928 800 928 704
WIRE 992 800 928 800
WIRE 1104 800 1104 704
WIRE 1104 800 1072 800
FLAG -96 160 vi
FLAG 576 160 vo
FLAG -160 448 0
FLAG 1232 560 0
FLAG 544 352 0
SYMBOL PowerProducts\\LM317 208 192 R0
SYMATTR InstName U1
SYMBOL res 336 160 R0
SYMATTR InstName R1
SYMATTR Value 240
SYMBOL voltage -160 192 R0
WINDOW 123 0 0 Left 0
WINDOW 39 0 0 Left 0
SYMATTR InstName V1
SYMATTR Value 12
SYMBOL dian_wei_qi 192 400 R0
SYMATTR InstName X1
SYMATTR SpiceLine Ra=130,Rb=10k
SYMBOL sw 496 640 M270
SYMATTR InstName S1
SYMATTR Value MYSW
SYMBOL dian_wei_qi 416 512 R270
SYMATTR InstName X2
SYMATTR SpiceLine Ra=740,Rb=10k
SYMBOL dian_wei_qi 736 512 R270
SYMATTR InstName X3
SYMATTR SpiceLine Ra=370,Rb=10k
SYMBOL dian_wei_qi 1008 512 R270
SYMATTR InstName X4
SYMATTR SpiceLine Ra=180,Rb=10k
SYMBOL sw 800 640 M270
SYMATTR InstName S2
SYMATTR Value MYSW
SYMBOL sw 1088 640 M270
SYMATTR InstName S3
SYMATTR Value MYSW
SYMBOL voltage 384 784 R270
WINDOW 0 32 56 VTop 2
WINDOW 3 -32 56 VBottom 2
WINDOW 123 0 0 Left 0
WINDOW 39 0 0 Left 0
SYMATTR InstName V2
SYMATTR Value 0
SYMBOL voltage 688 800 R270
WINDOW 0 32 56 VTop 2
WINDOW 3 -32 56 VBottom 2
WINDOW 123 0 0 Left 0
WINDOW 39 0 0 Left 0
SYMATTR InstName V3
SYMATTR Value 0.5
SYMBOL voltage 976 800 R270
WINDOW 0 32 56 VTop 2
WINDOW 3 -32 56 VBottom 2
WINDOW 123 0 0 Left 0
WINDOW 39 0 0 Left 0
SYMATTR InstName V4
SYMATTR Value 0
SYMBOL res 528 208 R0
SYMATTR InstName R2
SYMATTR Value 200
TEXT -194 488 Left 2 !.tran 0 50m 0 startup
TEXT 400 912 Left 2 !.model MYSW SW(Ron=1 Roff=100Meg Vt=.4 Vh=0)
