Version 4
SHEET 1 1016 680
WIRE 384 -272 384 -304
WIRE 960 -224 960 -272
WIRE 384 -160 384 -272
WIRE 384 -160 -64 -160
WIRE 960 -144 960 -224
WIRE -64 -32 -64 -160
WIRE 960 0 960 -64
WIRE 384 32 384 -160
WIRE 832 32 704 32
WIRE -64 80 -64 48
WIRE 96 80 -64 80
WIRE 176 80 96 80
WIRE -64 112 -64 80
WIRE 832 112 832 32
WIRE 832 112 368 112
WIRE 48 144 -32 144
WIRE 176 144 176 80
WIRE 208 144 176 144
WIRE 304 160 272 160
WIRE 208 176 176 176
WIRE 240 240 240 192
WIRE -64 256 -64 176
WIRE 96 256 96 208
WIRE 96 256 -64 256
WIRE 112 256 96 256
WIRE 240 256 240 240
WIRE 176 272 176 176
WIRE 368 272 368 208
WIRE 368 272 176 272
WIRE 112 320 112 256
WIRE 368 400 368 352
FLAG 112 320 0
FLAG 240 128 0
FLAG 368 400 0
FLAG 240 240 VCC
FLAG 384 -272 VCC
FLAG 960 0 0
FLAG 960 -224 VCC
SYMBOL OpAmps\\OP07 240 224 M180
SYMATTR InstName U1
SYMBOL LED 384 48 R270
WINDOW 0 72 32 VTop 2
WINDOW 3 0 32 VBottom 2
SYMATTR InstName D2
SYMBOL LED 448 48 R270
WINDOW 0 72 32 VTop 2
WINDOW 3 0 32 VBottom 2
SYMATTR InstName D3
SYMBOL LED 512 48 R270
WINDOW 0 72 32 VTop 2
WINDOW 3 0 32 VBottom 2
SYMATTR InstName D4
SYMBOL LED 576 48 R270
WINDOW 0 72 32 VTop 2
WINDOW 3 0 32 VBottom 2
SYMATTR InstName D5
SYMBOL LED 640 48 R270
WINDOW 0 72 32 VTop 2
WINDOW 3 0 32 VBottom 2
SYMATTR InstName D6
SYMBOL res 352 256 R0
SYMATTR InstName R2
SYMATTR Value 1k
SYMBOL npn 304 112 R0
SYMATTR InstName Q1
SYMBOL voltage 960 -160 R0
WINDOW 123 0 0 Left 0
WINDOW 39 0 0 Left 0
SYMATTR InstName V1
SYMATTR Value 12
SYMBOL References\\LT1009 -64 144 R0
SYMATTR InstName U2
SYMBOL res -80 -48 R0
SYMATTR InstName R1
SYMATTR Value 3.6k
SYMBOL dian_wei_qi 112 144 M0
SYMATTR InstName X1
SYMATTR SpiceLine Ra=10k,Rb=10k
TEXT -92 424 Left 2 !.tran 0 50m 0 startup
