Version 4
SHEET 1 880 680
WIRE 592 -128 544 -128
WIRE 704 -128 656 -128
WIRE 544 -48 544 -128
WIRE 592 -48 544 -48
WIRE 704 -48 704 -128
WIRE 704 -48 656 -48
WIRE 448 -16 384 -16
WIRE 384 32 384 -16
WIRE 544 32 544 -48
WIRE 544 32 512 32
WIRE 592 32 544 32
WIRE 704 32 704 -48
WIRE 704 32 672 32
WIRE 576 96 576 80
WIRE 704 112 704 32
WIRE 576 128 576 96
WIRE 240 144 224 144
WIRE 384 144 384 32
WIRE 384 144 320 144
WIRE 544 144 384 144
WIRE 704 160 704 112
WIRE 704 160 608 160
WIRE 736 160 704 160
WIRE 544 176 512 176
WIRE 224 192 224 144
WIRE 704 192 704 160
WIRE 736 192 704 192
WIRE 576 208 576 192
WIRE 576 224 576 208
WIRE 448 256 384 256
WIRE 512 256 512 176
WIRE 512 256 448 256
WIRE 528 256 512 256
WIRE 640 256 608 256
WIRE 704 256 704 192
WIRE 384 288 384 256
WIRE 448 288 448 256
WIRE 384 400 384 352
WIRE 432 400 384 400
WIRE 448 400 448 368
WIRE 448 400 432 400
WIRE 432 432 432 400
FLAG 224 192 0
FLAG 432 432 0
FLAG 576 96 VCC
FLAG 576 208 VEE
FLAG 704 112 Vou2t_Sin
SYMBOL OpAmps\\OP07 576 96 R0
SYMATTR InstName U1
SYMBOL res 624 240 R90
WINDOW 0 0 56 VBottom 2
WINDOW 3 32 56 VTop 2
SYMATTR InstName R1
SYMATTR Value 15k
SYMBOL cap 704 240 R90
WINDOW 0 0 32 VBottom 2
WINDOW 3 32 32 VTop 2
SYMATTR InstName C1
SYMATTR Value 10n
SYMBOL res 432 272 R0
SYMATTR InstName R2
SYMATTR Value 15k
SYMBOL cap 368 288 R0
SYMATTR InstName C2
SYMATTR Value 10n
SYMBOL res 336 128 R90
WINDOW 0 0 56 VBottom 2
WINDOW 3 32 56 VTop 2
SYMATTR InstName R3
SYMATTR Value 10k
SYMBOL dian_wei_qi 448 48 R270
SYMATTR InstName X1
SYMATTR SpiceLine Ra=1,Rb=16.5k
SYMBOL res 688 16 R90
WINDOW 0 0 56 VBottom 2
WINDOW 3 32 56 VTop 2
SYMATTR InstName R4
SYMATTR Value 4.7k
SYMBOL diode 656 -64 R90
WINDOW 0 0 32 VBottom 2
WINDOW 3 32 32 VTop 2
SYMATTR InstName D1
SYMATTR Value 1N4148
SYMBOL diode 592 -112 R270
WINDOW 0 32 32 VTop 2
WINDOW 3 0 32 VBottom 2
SYMATTR InstName D2
SYMATTR Value 1N4148
