Version 4
SHEET 1 1052 680
WIRE 208 -320 128 -320
WIRE 288 -320 208 -320
WIRE 416 -320 368 -320
WIRE 208 -224 208 -320
WIRE 544 -144 544 -192
WIRE 752 -144 752 -192
WIRE -384 -96 -384 -160
WIRE 256 -96 256 -160
WIRE 256 -96 208 -96
WIRE 544 -96 544 -144
WIRE 752 -96 752 -144
WIRE -384 -32 -384 -96
WIRE 208 -32 208 -96
WIRE 208 32 208 16
WIRE 544 32 544 -16
WIRE 752 32 752 -16
WIRE -96 48 -176 48
WIRE 48 48 48 -320
WIRE 48 48 -16 48
WIRE 176 48 48 48
WIRE 416 48 416 -320
WIRE 416 64 416 48
WIRE 416 64 240 64
WIRE 176 80 112 80
WIRE -384 112 -384 48
WIRE 112 112 112 80
WIRE 208 128 208 96
WIRE 112 240 112 192
FLAG 112 240 0
FLAG 208 -32 0
FLAG -176 48 vi
FLAG 416 48 vo
FLAG 544 32 0
FLAG 752 32 0
FLAG 208 32 VCC
FLAG 544 -144 VCC
FLAG 208 128 VEE
FLAG 752 -144 VEE
FLAG -384 112 0
FLAG -384 -96 vi
SYMBOL OpAmps\\OP07 208 0 R0
SYMATTR InstName U1
SYMBOL res 144 -336 R90
WINDOW 0 0 56 VBottom 2
WINDOW 3 32 56 VTop 2
SYMATTR InstName R2
SYMATTR Value 100k
SYMBOL res 384 -336 R90
WINDOW 0 0 56 VBottom 2
WINDOW 3 32 56 VTop 2
SYMATTR InstName R3
SYMATTR Value 100k
SYMBOL res 0 32 R90
WINDOW 0 0 56 VBottom 2
WINDOW 3 32 56 VTop 2
SYMATTR InstName R4
SYMATTR Value 50k
SYMBOL res 128 208 R180
WINDOW 0 36 76 Left 2
WINDOW 3 36 40 Left 2
SYMATTR InstName R5
SYMATTR Value 50k
SYMBOL voltage 544 -112 R0
WINDOW 123 0 0 Left 0
WINDOW 39 0 0 Left 0
SYMATTR InstName V1
SYMATTR Value 5
SYMBOL voltage 752 -112 R0
WINDOW 123 0 0 Left 0
WINDOW 39 0 0 Left 0
SYMATTR InstName V2
SYMATTR Value -5
SYMBOL dian_wei_qi 192 -160 R0
SYMATTR InstName X1
SYMATTR SpiceLine Ra=2.032k,Rb=1
SYMBOL voltage -384 -48 R0
WINDOW 123 0 0 Left 0
WINDOW 39 0 0 Left 0
SYMATTR InstName V3
SYMATTR Value SINE(0 0.01 1k)
TEXT -428 264 Left 2 !.tran 0 50m 0 startup
TEXT 512 152 Left 2 !.meas rmsofvi RMS V(vi) FROM 20m TO 50m
TEXT 520 200 Left 2 !.meas rmsofvo RMS V(vo) FROM 20m TO 50m
