Version 4
SHEET 1 968 680
WIRE 112 -16 16 -16
WIRE 736 -16 736 -64
WIRE 640 0 640 -64
WIRE 832 0 832 -48
WIRE -128 32 -160 32
WIRE -48 32 -128 32
WIRE 112 32 112 -16
WIRE 112 32 80 32
WIRE 224 32 112 32
WIRE 368 32 304 32
WIRE 640 64 640 0
WIRE 736 64 736 -16
WIRE 832 64 832 0
WIRE 208 112 208 96
WIRE 208 128 208 112
WIRE 368 128 368 32
WIRE -112 144 -160 144
WIRE 16 144 -112 144
WIRE 112 144 112 32
WIRE 112 144 96 144
WIRE 176 144 112 144
WIRE 368 160 368 128
WIRE 368 160 240 160
WIRE 448 160 368 160
WIRE 176 176 128 176
WIRE 640 192 640 144
WIRE 736 192 736 144
WIRE 832 192 832 144
WIRE 128 224 128 176
WIRE 160 224 128 224
WIRE 208 224 208 192
WIRE 208 224 160 224
WIRE 160 256 160 224
FLAG 160 256 0
FLAG 640 192 0
FLAG 736 192 0
FLAG 208 112 VCC
FLAG 640 0 VCC
FLAG -112 144 vi
FLAG 736 -16 vi
FLAG -128 32 ref
FLAG 832 192 0
FLAG 832 0 ref
FLAG 368 128 vo
SYMBOL res 112 128 R90
WINDOW 0 0 56 VBottom 2
WINDOW 3 32 56 VTop 2
SYMATTR InstName R2
SYMATTR Value 1k
SYMBOL res 320 16 R90
WINDOW 0 0 56 VBottom 2
WINDOW 3 32 56 VTop 2
SYMATTR InstName R3
SYMATTR Value 20k
SYMBOL voltage 640 48 R0
WINDOW 123 0 0 Left 0
WINDOW 39 0 0 Left 0
SYMATTR InstName V1
SYMATTR Value 5
SYMBOL voltage 736 48 R0
WINDOW 3 -67 206 Left 2
WINDOW 123 0 0 Left 0
WINDOW 39 0 0 Left 0
SYMATTR InstName V2
SYMATTR Value SINE(-0.2 0.1 1k)
SYMBOL voltage 832 48 R0
WINDOW 123 0 0 Left 0
WINDOW 39 0 0 Left 0
SYMATTR InstName V3
SYMATTR Value 5
SYMBOL dian_wei_qi 16 48 R270
SYMATTR InstName X1
SYMATTR SpiceLine Ra=100k,Rb=10k
SYMBOL OpAmps\\AD823A 208 96 R0
SYMATTR InstName U1
TEXT -162 280 Left 2 !.tran 0 50m 0
TEXT 64 328 Left 2 !.meas avg AVG V(vo) FROM 0 TO 50m
TEXT 64 352 Left 2 !.meas max MAX V(vo)
TEXT 72 376 Left 2 !.meas min MIN V(vo)
