Version 4
SHEET 1 880 680
WIRE 224 -160 224 -192
WIRE 800 -144 800 -176
WIRE 224 -96 224 -160
WIRE 224 -96 32 -96
WIRE 800 -80 800 -144
WIRE 224 -64 224 -96
WIRE 32 -16 32 -96
WIRE 800 32 800 0
WIRE 224 48 224 16
WIRE 384 48 224 48
WIRE 512 48 448 48
WIRE 224 80 224 48
WIRE -240 128 -288 128
WIRE 32 128 32 64
WIRE 32 128 -176 128
WIRE 160 128 32 128
WIRE -288 160 -288 128
WIRE 512 208 512 48
WIRE 32 240 32 128
WIRE 224 256 224 176
WIRE -288 288 -288 240
WIRE 336 320 272 320
WIRE 336 352 336 320
WIRE -288 464 -288 368
WIRE 32 464 32 320
WIRE 32 464 -288 464
WIRE 224 464 224 384
WIRE 224 464 32 464
WIRE 336 464 336 416
WIRE 336 464 224 464
WIRE 512 464 512 288
WIRE 512 464 336 464
WIRE 224 512 224 464
FLAG 224 512 0
FLAG 800 32 0
FLAG 224 -160 VCC
FLAG 800 -144 VCC
SYMBOL npn 160 80 R0
SYMATTR InstName Q1
SYMATTR Value 2SC4097
SYMBOL res 208 -80 R0
SYMATTR InstName R1
SYMATTR Value 3.6k
SYMBOL res 16 -32 R0
SYMATTR InstName R2
SYMATTR Value 35.5k
SYMBOL res 16 224 R0
SYMATTR InstName R3
SYMATTR Value 10k
SYMBOL dian_wei_qi 208 320 R0
SYMATTR InstName X1
SYMATTR SpiceLine Ra=100,Rb=753
SYMBOL cap 320 352 R0
SYMATTR InstName C1
SYMATTR Value 100µ
SYMBOL res 496 192 R0
SYMATTR InstName R4
SYMATTR Value 10k
SYMBOL cap 448 32 R90
WINDOW 0 0 32 VBottom 2
WINDOW 3 32 32 VTop 2
SYMATTR InstName C2
SYMATTR Value 5µ
SYMBOL cap -176 112 R90
WINDOW 0 0 32 VBottom 2
WINDOW 3 32 32 VTop 2
SYMATTR InstName C3
SYMATTR Value 5µ
SYMBOL res -304 144 R0
SYMATTR InstName R5
SYMATTR Value 500
SYMBOL voltage -288 272 R0
WINDOW 123 24 124 Left 2
WINDOW 39 0 0 Left 0
SYMATTR InstName V1
SYMATTR Value ""
SYMATTR Value2 AC 0.01
SYMBOL voltage 800 -96 R0
WINDOW 123 0 0 Left 0
WINDOW 39 0 0 Left 0
SYMATTR InstName V2
SYMATTR Value 12
TEXT -322 536 Left 2 !.ac dec 100 1 1000k
