Version 4
SHEET 1 964 680
WIRE 288 -208 16 -208
WIRE 16 -80 16 -208
WIRE 800 -16 800 -48
WIRE 896 -16 896 -48
WIRE 192 16 192 -16
WIRE 16 32 16 0
WIRE 96 32 16 32
WIRE 192 48 192 16
WIRE 800 48 800 -16
WIRE 896 48 896 -16
WIRE 16 64 16 32
WIRE 96 64 96 32
WIRE 160 64 96 64
WIRE 240 80 224 80
WIRE 160 96 112 96
WIRE 480 128 480 96
WIRE 192 160 192 112
WIRE 288 160 288 -208
WIRE 336 160 288 160
WIRE 480 160 480 128
WIRE 192 176 192 160
WIRE 416 176 416 128
WIRE 448 176 416 176
WIRE 800 176 800 128
WIRE 848 176 800 176
WIRE 896 176 896 128
WIRE 896 176 848 176
WIRE -32 192 -32 128
WIRE 16 192 -32 192
WIRE 112 192 112 96
WIRE 240 192 240 80
WIRE 240 192 112 192
WIRE 688 192 512 192
WIRE 848 192 848 176
WIRE 240 208 240 192
WIRE 288 208 240 208
WIRE 400 208 368 208
WIRE 448 208 400 208
WIRE 16 224 16 192
WIRE 16 224 -192 224
WIRE 160 224 128 224
WIRE 240 224 240 208
WIRE 480 256 480 224
WIRE 192 272 192 256
WIRE 480 272 480 256
WIRE -192 304 -192 224
WIRE -176 304 -192 304
WIRE 192 304 192 272
WIRE -176 320 -176 304
WIRE 32 320 -176 320
WIRE 128 320 128 224
WIRE 128 320 112 320
WIRE 160 320 128 320
WIRE -176 336 -176 320
WIRE 336 336 336 160
WIRE 336 336 224 336
WIRE 32 352 -80 352
WIRE 128 352 112 352
WIRE 160 352 128 352
WIRE 400 352 400 208
WIRE 480 352 400 352
WIRE 688 352 688 192
WIRE 688 352 560 352
WIRE 192 384 192 368
WIRE -80 416 -80 352
WIRE 192 416 192 384
WIRE 128 448 128 352
WIRE 176 448 128 448
WIRE 336 448 336 336
WIRE 336 448 256 448
WIRE 128 512 128 448
WIRE 192 512 128 512
WIRE 336 512 336 448
WIRE 336 512 256 512
WIRE -80 576 -80 496
FLAG -176 336 0
FLAG -80 576 0
FLAG 336 128 0
FLAG 192 160 VCC
FLAG 192 384 VCC
FLAG 480 256 VCC
FLAG 480 128 VEE
FLAG 192 16 VEE
FLAG 192 272 VEE
FLAG 848 192 0
FLAG 800 -16 VCC
FLAG 896 -16 VEE
SYMBOL OpAmps\\OP07 192 144 M180
SYMATTR InstName U1
SYMBOL OpAmps\\OP07 192 400 M180
SYMATTR InstName U2
SYMBOL OpAmps\\OP07 480 256 M180
SYMATTR InstName U3
SYMBOL res 432 112 R90
WINDOW 0 0 56 VBottom 2
WINDOW 3 32 56 VTop 2
SYMATTR InstName R1
SYMATTR Value 50k
SYMBOL res 384 192 R90
WINDOW 0 0 56 VBottom 2
WINDOW 3 32 56 VTop 2
SYMATTR InstName R2
SYMATTR Value 100k
SYMBOL res 576 336 R90
WINDOW 0 0 56 VBottom 2
WINDOW 3 32 56 VTop 2
SYMATTR InstName R3
SYMATTR Value 100k
SYMBOL res 32 16 R180
WINDOW 0 36 76 Left 2
WINDOW 3 36 40 Left 2
SYMATTR InstName R4
SYMATTR Value 2.5k
SYMBOL dian_wei_qi 32 128 M0
SYMATTR InstName X1
SYMATTR SpiceLine Ra={R},Rb=10k
SYMBOL res 128 304 R90
WINDOW 0 0 56 VBottom 2
WINDOW 3 32 56 VTop 2
SYMATTR InstName R5
SYMATTR Value 100k
SYMBOL res 128 336 R90
WINDOW 0 0 56 VBottom 2
WINDOW 3 32 56 VTop 2
SYMATTR InstName R6
SYMATTR Value 100k
SYMBOL res 272 432 R90
WINDOW 0 0 56 VBottom 2
WINDOW 3 32 56 VTop 2
SYMATTR InstName R7
SYMATTR Value 100k
SYMBOL cap 256 496 R90
WINDOW 0 0 32 VBottom 2
WINDOW 3 32 32 VTop 2
SYMATTR InstName C1
SYMATTR Value 1µ
SYMBOL voltage -80 400 R0
WINDOW 123 0 0 Left 0
WINDOW 39 0 0 Left 0
SYMATTR InstName V1
SYMATTR Value 2.5
SYMBOL res 256 208 R90
WINDOW 0 0 56 VBottom 2
WINDOW 3 32 56 VTop 2
SYMATTR InstName R8
SYMATTR Value 100k
SYMBOL voltage 800 32 R0
WINDOW 123 0 0 Left 0
WINDOW 39 0 0 Left 0
SYMATTR InstName V2
SYMATTR Value 15
SYMBOL voltage 896 32 R0
WINDOW 123 0 0 Left 0
WINDOW 39 0 0 Left 0
SYMATTR InstName V3
SYMATTR Value -15
TEXT -560 256 Left 2 !.step param R 1k 4k 0.2k
TEXT -562 600 Left 2 !.tran 0 50m 0
