Version 4
SHEET 1 1664 1192
WIRE 1136 -480 1072 -480
WIRE -48 -352 -320 -352
WIRE 112 -352 -48 -352
WIRE 256 -352 112 -352
WIRE 496 -352 256 -352
WIRE 736 -352 496 -352
WIRE 1136 -352 1136 -480
WIRE 1136 -352 736 -352
WIRE 1152 -352 1136 -352
WIRE -48 -240 -48 -352
WIRE 112 -240 112 -352
WIRE 256 -240 256 -352
WIRE 1152 -160 1152 -352
WIRE 736 -144 736 -352
WIRE 1088 -112 976 -112
WIRE -48 -96 -48 -160
WIRE 672 -96 -48 -96
WIRE 256 -80 256 -160
WIRE 336 -80 256 -80
WIRE 1152 -16 1152 -64
WIRE 1152 -16 1136 -16
WIRE 336 0 336 -80
WIRE 976 0 976 -112
WIRE 976 0 336 0
WIRE 1136 32 1136 -16
WIRE 1312 32 1136 32
WIRE 1344 32 1312 32
WIRE 736 48 736 -48
WIRE -48 80 -48 -96
WIRE 256 80 256 -80
WIRE 1136 80 1136 32
WIRE 112 128 112 -160
WIRE 112 128 16 128
WIRE 192 128 112 128
WIRE 736 208 736 128
WIRE 736 208 720 208
WIRE 800 208 736 208
WIRE 1136 208 1136 160
WIRE 1136 208 800 208
WIRE 112 224 112 128
WIRE 800 256 800 208
WIRE -320 272 -320 -352
WIRE 496 272 496 -352
WIRE -384 320 -496 320
WIRE 592 320 560 320
WIRE 112 336 112 288
WIRE 592 352 592 320
WIRE -496 368 -496 320
WIRE -320 400 -320 368
WIRE -192 400 -320 400
WIRE -320 416 -320 400
WIRE 112 416 112 400
WIRE 496 416 496 368
WIRE 496 416 368 416
WIRE 720 416 720 208
WIRE -48 448 -48 176
WIRE 256 448 256 176
WIRE 496 448 496 416
WIRE -496 496 -496 448
WIRE -192 496 -192 400
WIRE -112 496 -192 496
WIRE 368 496 368 416
WIRE 368 496 320 496
WIRE 720 576 720 496
WIRE 736 576 720 576
WIRE 736 608 736 576
WIRE 736 608 608 608
WIRE -48 672 -48 544
WIRE 112 672 -48 672
WIRE 256 672 256 544
WIRE 256 672 112 672
WIRE 736 688 736 608
WIRE 112 752 112 672
WIRE 608 800 608 608
WIRE 608 800 176 800
WIRE 112 880 112 848
WIRE -320 1008 -320 496
WIRE 112 1008 112 960
WIRE 112 1008 -320 1008
WIRE 496 1008 496 528
WIRE 496 1008 112 1008
WIRE 736 1008 736 768
WIRE 736 1008 496 1008
WIRE 496 1072 496 1008
FLAG 112 416 0
FLAG -496 496 0
FLAG 592 352 0
FLAG 800 256 0
FLAG 992 -480 0
FLAG 496 1152 0
FLAG 1312 32 OUT
SYMBOL npn 192 80 R0
SYMATTR InstName Q1
SYMATTR Value 2N3904
SYMBOL npn 16 80 M0
SYMATTR InstName Q2
SYMATTR Value 2N3904
SYMBOL npn 320 448 M0
SYMATTR InstName Q3
SYMATTR Value 2N3904
SYMBOL npn -112 448 R0
SYMATTR InstName Q4
SYMATTR Value 2N3904
SYMBOL diode 96 224 R0
SYMATTR InstName D1
SYMATTR Value 1N4148
SYMBOL diode 96 336 R0
SYMATTR InstName D2
SYMATTR Value 1N4148
SYMBOL npn -384 272 R0
SYMATTR InstName Q5
SYMATTR Value 2N3904
SYMBOL npn 560 272 M0
SYMATTR InstName Q6
SYMATTR Value 2N3904
SYMBOL res -336 400 R0
SYMATTR InstName R1
SYMATTR Value 4.8k
SYMBOL res 480 432 R0
SYMATTR InstName R2
SYMATTR Value 4.8k
SYMBOL npn 176 752 M0
SYMATTR InstName Q7
SYMATTR Value 2N3904
SYMBOL res 96 864 R0
SYMATTR InstName R3
SYMATTR Value 0.12k
SYMBOL voltage -496 352 R0
WINDOW 3 24 152 Left 2
WINDOW 123 24 180 Left 2
WINDOW 39 0 0 Left 0
SYMATTR InstName V1
SYMATTR Value ""
SYMATTR Value2 AC 25m
SYMBOL res -64 -256 R0
SYMATTR InstName R4
SYMATTR Value 1.32k
SYMBOL res 96 -256 R0
SYMATTR InstName R5
SYMATTR Value 0.92k
SYMBOL res 240 -256 R0
SYMATTR InstName R6
SYMATTR Value 1.32k
SYMBOL res 720 32 R0
SYMATTR InstName R7
SYMATTR Value 5.25k
SYMBOL npn 672 -144 R0
SYMATTR InstName Q8
SYMATTR Value 2N3904
SYMBOL npn 1088 -160 R0
SYMATTR InstName Q9
SYMATTR Value 2N3904
SYMBOL res 1120 64 R0
SYMATTR InstName R8
SYMATTR Value 5.25k
SYMBOL res 704 400 R0
SYMATTR InstName R9
SYMATTR Value 2.93k
SYMBOL res 720 672 R0
SYMATTR InstName R10
SYMATTR Value 0.67k
SYMBOL voltage 496 1056 R0
WINDOW 123 0 0 Left 0
WINDOW 39 0 0 Left 0
SYMATTR InstName V2
SYMATTR Value -6
SYMBOL voltage 1088 -480 R90
WINDOW 0 -32 56 VBottom 2
WINDOW 3 32 56 VTop 2
WINDOW 123 0 0 Left 0
WINDOW 39 0 0 Left 0
SYMATTR InstName V3
SYMATTR Value 6
TEXT 1360 80 Left 2 !.meas avgout AVG V(OUT)
TEXT 1368 120 Left 2 !.meas ppofout PP V(OUT)
TEXT -530 1176 Left 2 !.ac dec 100 1 100Meg
