Version 4
SHEET 1 2688 2124
WIRE -688 768 -688 736
WIRE -608 768 -608 736
WIRE -608 800 -608 768
WIRE 544 800 368 800
WIRE 608 800 544 800
WIRE 1968 800 1792 800
WIRE 2032 800 1968 800
WIRE -688 816 -688 768
WIRE -688 928 -688 896
WIRE -608 928 -608 880
WIRE 368 960 368 800
WIRE 608 960 608 800
WIRE 1792 960 1792 800
WIRE 2032 960 2032 800
WIRE 160 1072 144 1072
WIRE 368 1072 368 1040
WIRE 368 1072 160 1072
WIRE 1600 1072 1568 1072
WIRE 1792 1072 1792 1040
WIRE 1792 1072 1600 1072
WIRE 368 1184 368 1072
WIRE 608 1184 608 1040
WIRE 1792 1184 1792 1072
WIRE 2032 1184 2032 1040
WIRE 160 1232 96 1232
WIRE 304 1232 240 1232
WIRE 672 1232 656 1232
WIRE 736 1232 672 1232
WIRE 896 1232 816 1232
WIRE 1584 1232 1520 1232
WIRE 1728 1232 1664 1232
WIRE 2096 1232 2080 1232
WIRE 2160 1232 2096 1232
WIRE 2320 1232 2240 1232
WIRE 368 1344 368 1280
WIRE 496 1344 368 1344
WIRE 608 1344 608 1280
WIRE 608 1344 496 1344
WIRE 1792 1344 1792 1280
WIRE 1920 1344 1792 1344
WIRE 2032 1344 2032 1280
WIRE 2032 1344 1920 1344
WIRE 896 1584 896 1488
WIRE 2320 1584 2320 1488
WIRE 496 1680 496 1344
WIRE 1920 1680 1920 1344
WIRE 896 1728 896 1664
WIRE 896 1728 560 1728
WIRE 2320 1728 2320 1664
WIRE 2320 1728 1984 1728
WIRE 896 1792 896 1728
WIRE 2320 1792 2320 1728
WIRE 496 1824 496 1776
WIRE 1920 1824 1920 1776
WIRE 496 1984 496 1904
WIRE 640 1984 496 1984
WIRE 896 1984 896 1872
WIRE 896 1984 640 1984
WIRE 1920 1984 1920 1904
WIRE 2064 1984 1920 1984
WIRE 2320 1984 2320 1872
WIRE 2320 1984 2064 1984
FLAG 544 800 VCC
FLAG 640 1984 VEE
FLAG 96 1232 vi1
FLAG 896 1232 vi2
FLAG -688 928 0
FLAG -608 928 0
FLAG -688 768 VCC
FLAG -608 768 VEE
FLAG 896 1312 0
FLAG 96 1312 0
FLAG 896 1488 0
FLAG 1968 800 VCC
FLAG 2064 1984 VEE
FLAG 2320 1312 0
FLAG 1520 1312 0
FLAG 2320 1488 0
FLAG 160 1072 vod
FLAG 1600 1072 voc
SYMBOL npn 304 1184 R0
SYMATTR InstName Q1
SYMATTR Value 2N3904
SYMBOL npn 672 1184 M0
SYMATTR InstName Q2
SYMATTR Value 2N3904
SYMBOL res 352 944 R0
SYMATTR InstName RC1
SYMATTR Value 20k
SYMBOL res 592 944 R0
SYMATTR InstName RC2
SYMATTR Value 20k
SYMBOL npn 560 1680 M0
SYMATTR InstName Q3
SYMATTR Value 2N3904
SYMBOL res 880 1568 R0
SYMATTR InstName R17
SYMATTR Value 10k
SYMBOL res 880 1776 R0
SYMATTR InstName R29
SYMATTR Value 13k
SYMBOL res 480 1808 R0
SYMATTR InstName RE
SYMATTR Value 10k
SYMBOL res 256 1216 R90
WINDOW 0 0 56 VBottom 2
WINDOW 3 32 56 VTop 2
SYMATTR InstName RB1
SYMATTR Value 120k
SYMBOL res 720 1248 R270
WINDOW 0 32 56 VTop 2
WINDOW 3 0 56 VBottom 2
SYMATTR InstName RB2
SYMATTR Value 120k
SYMBOL voltage -688 800 R0
WINDOW 123 0 0 Left 0
WINDOW 39 0 0 Left 0
SYMATTR InstName V1
SYMATTR Value 10
SYMBOL voltage -608 784 R0
WINDOW 123 0 0 Left 0
WINDOW 39 0 0 Left 0
SYMATTR InstName V2
SYMATTR Value -10
SYMBOL voltage 96 1216 R0
WINDOW 123 0 0 Left 0
WINDOW 39 0 0 Left 0
SYMATTR InstName V3
SYMATTR Value SINE(0 0.05 1k)
SYMBOL voltage 896 1216 R0
WINDOW 123 0 0 Left 0
WINDOW 39 0 0 Left 0
SYMATTR InstName V4
SYMATTR Value SINE(0 0.05 1k 0 0 180)
SYMBOL npn 1728 1184 R0
SYMATTR InstName Q4
SYMATTR Value 2N3904
SYMBOL npn 2096 1184 M0
SYMATTR InstName Q5
SYMATTR Value 2N3904
SYMBOL res 1776 944 R0
SYMATTR InstName RC3
SYMATTR Value 20k
SYMBOL res 2016 944 R0
SYMATTR InstName RC4
SYMATTR Value 20k
SYMBOL npn 1984 1680 M0
SYMATTR InstName Q6
SYMATTR Value 2N3904
SYMBOL res 2304 1568 R0
SYMATTR InstName R1
SYMATTR Value 10k
SYMBOL res 2304 1776 R0
SYMATTR InstName R2
SYMATTR Value 13k
SYMBOL res 1904 1808 R0
SYMATTR InstName RE1
SYMATTR Value 10k
SYMBOL res 1680 1216 R90
WINDOW 0 0 56 VBottom 2
WINDOW 3 32 56 VTop 2
SYMATTR InstName RB3
SYMATTR Value 120k
SYMBOL res 2144 1248 R270
WINDOW 0 32 56 VTop 2
WINDOW 3 0 56 VBottom 2
SYMATTR InstName RB4
SYMATTR Value 120k
SYMBOL voltage 2320 1216 R0
WINDOW 123 0 0 Left 0
WINDOW 39 0 0 Left 0
SYMATTR InstName V5
SYMATTR Value SINE(0 0.1 1k)
SYMBOL voltage 1520 1216 R0
WINDOW 123 0 0 Left 0
WINDOW 39 0 0 Left 0
SYMATTR InstName V6
SYMATTR Value SINE(0 0.1 1k)
TEXT -744 1248 Left 2 !.tran 0 50m 0
TEXT 1048 968 Left 2 !.meas ppofvoda PP V(vod)
TEXT 1048 1032 Left 2 !.meas ppofvoc PP V(voc)
