Version 4
SHEET 1 948 680
WIRE 256 -112 256 -160
WIRE 416 -112 256 -112
WIRE 416 -64 416 -112
WIRE 368 -48 176 -48
WIRE 128 112 128 32
WIRE 416 112 416 32
SYMBOL pmos 176 32 R180
SYMATTR InstName M1
SYMBOL pmos 368 32 M180
SYMATTR InstName M2
SYMBOL pmos 208 -160 M180
SYMATTR InstName M3
SYMBOL pmos -16 -144 R180
SYMATTR InstName M4
SYMBOL pmos -304 -144 M180
SYMATTR InstName M5
SYMBOL nmos -112 -32 R0
SYMATTR InstName M6
SYMBOL nmos -208 -32 M0
SYMATTR InstName M7
SYMBOL nmos -208 128 M0
SYMATTR InstName M8
SYMBOL nmos -112 128 R0
SYMATTR InstName M9
SYMBOL nmos 176 112 M0
SYMATTR InstName M10
SYMBOL nmos 368 112 R0
SYMATTR InstName M11
SYMBOL nmos 816 208 R0
SYMATTR InstName M12
SYMBOL nmos 768 -48 R90
SYMATTR InstName M13
SYMBOL pmos 768 -160 M180
SYMATTR InstName M14
