Version 4
SHEET 1 1052 824
WIRE 32 80 -128 80
WIRE 112 80 32 80
WIRE 384 80 272 80
WIRE 464 80 384 80
WIRE 512 80 464 80
WIRE 528 80 512 80
WIRE -128 96 -128 80
WIRE 32 96 32 80
WIRE 464 128 464 80
WIRE -128 208 -128 176
WIRE 32 208 32 160
WIRE 464 208 464 192
WIRE 192 224 192 176
WIRE 288 224 192 224
WIRE 384 224 384 80
WIRE 384 224 368 224
WIRE 192 272 192 224
WIRE 336 352 192 352
WIRE 192 368 192 352
WIRE 336 368 336 352
WIRE 512 368 400 368
WIRE 400 384 400 368
WIRE 400 384 384 384
WIRE 464 432 384 432
WIRE 336 448 192 448
WIRE 464 448 464 432
WIRE 512 448 464 448
WIRE 192 464 192 448
WIRE 336 464 336 448
WIRE 512 464 464 464
WIRE 464 480 464 464
WIRE 464 480 384 480
WIRE 464 528 384 528
WIRE 464 544 464 528
WIRE 512 544 464 544
WIRE 192 560 192 544
WIRE 336 560 336 544
WIRE 336 560 192 560
WIRE 512 560 464 560
WIRE 464 576 464 560
WIRE 464 576 384 576
WIRE 464 624 384 624
WIRE 336 640 192 640
WIRE 464 640 464 624
WIRE 512 640 464 640
WIRE 192 656 192 640
WIRE 336 656 336 640
WIRE 512 656 464 656
WIRE 464 672 464 656
WIRE 464 672 384 672
WIRE 464 720 384 720
WIRE 464 736 464 720
WIRE 512 736 464 736
WIRE 192 752 192 736
WIRE 336 752 336 736
WIRE 336 752 192 752
WIRE 192 784 192 752
FLAG -128 208 0
FLAG 32 208 0
FLAG 512 80 OUT
FLAG 464 208 0
FLAG 192 784 0
SYMBOL PowerProducts\\LM317 192 112 R0
SYMATTR InstName U1
SYMBOL voltage -128 80 R0
WINDOW 123 0 0 Left 0
WINDOW 39 0 0 Left 0
SYMATTR InstName V1
SYMATTR Value 30
SYMBOL cap 16 96 R0
SYMATTR InstName C1
SYMATTR Value 0.1µ
SYMBOL cap 448 128 R0
SYMATTR InstName C2
SYMATTR Value 1µ
SYMBOL res 176 256 R0
SYMATTR InstName R1
SYMATTR Value 280
SYMBOL res 384 208 R90
WINDOW 0 0 56 VBottom 2
WINDOW 3 32 56 VTop 2
SYMATTR InstName R2
SYMATTR Value 200
SYMBOL res 176 352 R0
SYMATTR InstName R3
SYMATTR Value 160
SYMBOL res 176 448 R0
SYMATTR InstName R4
SYMATTR Value 320
SYMBOL res 176 544 R0
SYMATTR InstName R5
SYMATTR Value 640
SYMBOL res 176 640 R0
SYMATTR InstName R6
SYMATTR Value 1280
SYMBOL sw 336 464 R180
SYMATTR InstName S1
SYMATTR Value MYSW
SYMBOL sw 336 560 R180
SYMATTR InstName SW2
SYMATTR Value MYSW
SYMBOL sw 336 656 R180
SYMATTR InstName S3
SYMATTR Value MYSW
SYMBOL sw 336 752 R180
SYMATTR InstName S4
SYMATTR Value MYSW
SYMBOL voltage 512 352 R0
WINDOW 123 0 0 Left 0
WINDOW 39 0 0 Left 0
SYMATTR InstName V2
SYMATTR Value 1
SYMBOL voltage 512 448 R0
WINDOW 123 0 0 Left 0
WINDOW 39 0 0 Left 0
SYMATTR InstName V3
SYMATTR Value 0
SYMBOL voltage 512 544 R0
WINDOW 123 0 0 Left 0
WINDOW 39 0 0 Left 0
SYMATTR InstName V4
SYMATTR Value 0
SYMBOL voltage 512 640 R0
WINDOW 123 0 0 Left 0
WINDOW 39 0 0 Left 0
SYMATTR InstName V5
SYMATTR Value 0
TEXT 440 288 Left 2 !.model MYSW SW(Ron=1 Roff=100Meg Vt=.4 Vh=0)
TEXT -162 808 Left 2 !.tran 0 50m 0
