Version 4
SHEET 1 2600 680
WIRE 2544 -144 2032 -144
WIRE 1424 -128 912 -128
WIRE 2032 0 2032 -144
WIRE 2032 0 2016 0
WIRE 2240 0 2048 0
WIRE 912 16 912 -128
WIRE 912 16 896 16
WIRE 1120 16 928 16
WIRE 112 32 48 32
WIRE 2080 32 2016 32
WIRE 960 48 896 48
WIRE 2080 48 2080 32
WIRE 2144 48 2080 48
WIRE 112 64 112 32
WIRE 112 64 48 64
WIRE 960 64 960 48
WIRE 1024 64 960 64
WIRE 2048 64 2048 0
WIRE 2048 64 2016 64
WIRE 112 80 112 64
WIRE 176 80 112 80
WIRE 928 80 928 16
WIRE 928 80 896 80
WIRE 112 96 112 80
WIRE 112 96 48 96
WIRE 1424 96 1424 -128
WIRE 2080 96 2080 48
WIRE 2080 96 2016 96
WIRE 2144 96 2144 48
WIRE 960 112 960 64
WIRE 960 112 896 112
WIRE 1024 112 1024 64
WIRE 112 128 112 96
WIRE 112 128 48 128
WIRE 176 128 176 80
WIRE 2208 128 2016 128
WIRE 2416 128 2272 128
WIRE 1088 144 896 144
WIRE 1296 144 1152 144
WIRE 240 160 48 160
WIRE 448 160 304 160
WIRE 2288 160 2016 160
WIRE 1168 176 896 176
WIRE 320 192 48 192
WIRE 448 192 448 160
WIRE 2144 192 2016 192
WIRE 2288 192 2288 160
WIRE 1024 208 896 208
WIRE 1168 208 1168 176
WIRE 2144 208 2144 192
WIRE 176 224 48 224
WIRE 320 224 320 192
WIRE 1024 224 1024 208
WIRE 2032 224 2016 224
WIRE 176 240 176 224
WIRE 912 240 896 240
WIRE 2144 288 2144 272
WIRE 2288 288 2288 272
WIRE 2288 288 2144 288
WIRE 1024 304 1024 288
WIRE 1168 304 1168 288
WIRE 1168 304 1024 304
WIRE 2144 304 2144 288
WIRE 2416 304 2416 240
WIRE 176 320 176 304
WIRE 320 320 320 304
WIRE 320 320 176 320
WIRE 1024 320 1024 304
WIRE 1296 320 1296 256
WIRE 176 336 176 320
WIRE 448 336 448 272
WIRE 2032 384 2032 224
WIRE 2544 384 2544 144
WIRE 2544 384 2032 384
WIRE 912 400 912 240
WIRE 1424 400 1424 160
WIRE 1424 400 912 400
FLAG 176 336 0
FLAG 448 336 0
FLAG 176 128 0
FLAG 1024 320 0
FLAG 1296 320 0
FLAG 1024 112 0
FLAG 1264 16 0
FLAG 2144 304 0
FLAG 2416 304 0
FLAG 2144 96 0
FLAG 2384 0 0
SYMBOL 3_27 16 144 R0
SYMATTR InstName X1
SYMBOL cap 160 240 R0
SYMATTR InstName C1
SYMATTR Value 22µ
SYMBOL voltage 320 208 R0
WINDOW 123 0 0 Left 0
WINDOW 39 0 0 Left 0
SYMATTR InstName V1
SYMATTR Value 6
SYMBOL cap 304 144 R90
WINDOW 0 0 32 VBottom 2
WINDOW 3 32 32 VTop 2
SYMATTR InstName C2
SYMATTR Value 220µ
SYMBOL res 432 176 R0
SYMATTR InstName R1
SYMATTR Value 8
SYMBOL 3_27 864 128 R0
SYMATTR InstName X2
SYMBOL cap 1008 224 R0
SYMATTR InstName C3
SYMATTR Value 10µ
SYMBOL voltage 1168 192 R0
WINDOW 123 0 0 Left 0
WINDOW 39 0 0 Left 0
SYMATTR InstName V2
SYMATTR Value 12
SYMBOL cap 1152 128 R90
WINDOW 0 0 32 VBottom 2
WINDOW 3 32 32 VTop 2
SYMATTR InstName C4
SYMATTR Value 220µ
SYMBOL res 1280 160 R0
SYMATTR InstName R2
SYMATTR Value 8
SYMBOL cap 1184 0 R90
WINDOW 0 0 32 VBottom 2
WINDOW 3 32 32 VTop 2
SYMATTR InstName C5
SYMATTR Value 10µ
SYMBOL voltage 1168 16 R270
WINDOW 0 32 56 VTop 2
WINDOW 3 -32 56 VBottom 2
WINDOW 123 0 0 Left 0
WINDOW 39 0 0 Left 0
SYMATTR InstName V3
SYMATTR Value SINE(0 0.02 1k)
SYMBOL cap 1408 96 R0
SYMATTR InstName C6
SYMATTR Value 33µ
SYMBOL 3_27 1984 112 R0
SYMATTR InstName X3
SYMBOL cap 2128 208 R0
SYMATTR InstName C7
SYMATTR Value 10µ
SYMBOL voltage 2288 176 R0
WINDOW 123 0 0 Left 0
WINDOW 39 0 0 Left 0
SYMATTR InstName V4
SYMATTR Value 6
SYMBOL cap 2272 112 R90
WINDOW 0 0 32 VBottom 2
WINDOW 3 32 32 VTop 2
SYMATTR InstName C8
SYMATTR Value 220µ
SYMBOL res 2400 144 R0
SYMATTR InstName R3
SYMATTR Value 8
SYMBOL cap 2304 -16 R90
WINDOW 0 0 32 VBottom 2
WINDOW 3 32 32 VTop 2
SYMATTR InstName C9
SYMATTR Value 10µ
SYMBOL voltage 2288 0 R270
WINDOW 0 32 56 VTop 2
WINDOW 3 -32 56 VBottom 2
WINDOW 123 4 56 VTop 2
WINDOW 39 0 0 Left 0
SYMATTR InstName V5
SYMATTR Value ""
SYMATTR Value2 AC 0.1
SYMBOL cap 2528 80 R0
SYMATTR InstName C10
SYMATTR Value 33µ
TEXT -18 406 Left 2 !.ac dec 100 1 10000k
